*Heading
** Job name: BRBRUN Model name: Model-1
** Generated by: Abaqus/CAE 2018
*Preprint, echo=NO, model=NO, history=NO, contact=NO
** ----------------------------------------------------------------
** 
** PART INSTANCE: BRB_BOT-1
** 
*System
   -0.117856,     -0.0127,    0.003175,    0.882144,     -0.0127,    0.003175
   -0.117856,-0.0126999999999999,   -0.996825
*Node
      1, 0.0571499988, 0.00317499996, 0.0253999997
      2, 0.0571499988, 0.00317499996, 0.0126999998
      3, -0.242569998, 0.00317499996, 0.0126999998
      4, -0.242569998, 0.00317499996, 0.0253999997
      5, 0.0571499988, -0.00952500012, 0.0126999998
      6, -0.242569998, -0.00952500012, 0.0126999998
      7, -0.242569998, -0.00952500012, 0.0253999997
      8, 0.0571499988, -0.00952500012, 0.0253999997
      9, 0.0571499988, 0.0158750005, 0.0253999997
     10, 0.0571499988, 0.0158750005, 0.0126999998
     11, -0.242569998, 0.0158750005, 0.0126999998
     12, -0.242569998, 0.0158750005, 0.0253999997
     13, -0.242569998, 0.00317499996,           0.
     14, 0.0571499988, 0.00317499996,           0.
     15, 0.0571499988, -0.00952500012,           0.
     16, -0.242569998, -0.00952500012,           0.
     17, 0.0875030011, 0.00317499996,           0.
     18, 0.0875030011, -0.00952500012,           0.
     19, 0.0723265037, -0.00952500012,           0.
     20, 0.0723265037, 0.00317499996,           0.
** ... 18393 like lines cut
*Element, type=C3D8R
   1,   603,  3894,  9598,  2958,     1,   112,  2022,   353
   2,  3894,  3895,  9599,  9598,   112,   113,  2023,  2022
   3,  3895,  3896,  9600,  9599,   113,   114,  2024,  2023
   4,  3896,  3897,  9601,  9600,   114,   115,  2025,  2024
   5,  3897,   608,  3426,  9601,   115,     2,   116,  2025
   6,  2958,  9598,  9602,  2959,   353,  2022,  2026,   352
   7,  9598,  9599,  9603,  9602,  2022,  2023,  2027,  2026
   8,  9599,  9600,  9604,  9603,  2023,  2024,  2028,  2027
   9,  9600,  9601,  9605,  9604,  2024,  2025,  2029,  2028
  10,  9601,  3426,  3427,  9605,  2025,   116,   117,  2029
  11,  2959,  9602,  9606,  2960,   352,  2026,  2030,   351
  12,  9602,  9603,  9607,  9606,  2026,  2027,  2031,  2030
  13,  9603,  9604,  9608,  9607,  2027,  2028,  2032,  2031
  14,  9604,  9605,  9609,  9608,  2028,  2029,  2033,  2032
  15,  9605,  3427,  3428,  9609,  2029,   117,   118,  2033
  16,  2960,  9606,  9610,  2961,   351,  2030,  2034,   350
  17,  9606,  9607,  9611,  9610,  2030,  2031,  2035,  2034
  18,  9607,  9608,  9612,  9611,  2031,  2032,  2036,  2035
  19,  9608,  9609,  9613,  9612,  2032,  2033,  2037,  2036
  20,  9609,  3428,  3429,  9613,  2033,   118,   119,  2037
** ... 14720 like lines cut
*Nset, nset=BRB_BOT-1_Set-1, generate
     1,  18413,      1
*Elset, elset=BRB_BOT-1_Set-1, generate
     1,  14740,      1
** Section: Section-1
*Solid Section, elset=BRB_BOT-1_Set-1, material=STEEL
,
** ----------------------------------------------------------------
** 
** PART INSTANCE: BRB_TOP-1
** 
*System
    0.249301,     -0.0127,      0.0127,    1.249301,     -0.0127,      0.0127
    0.249301,-0.0126999999999999,     -0.9873
*Node
  18414, -0.294830501, 0.0126999998, 0.0126999998
  18415, -0.297359914, 0.0126999998, 0.0126999998
  18416, -0.299889326, 0.0126999998, 0.0126999998
  18417, -0.302418739, 0.0126999998, 0.0126999998
  18418, -0.304948181, 0.0126999998, 0.0126999998
  18419, -0.307477593, 0.0126999998, 0.0126999998
  18420, -0.310007006, 0.0126999998, 0.0126999998
  18421, -0.294830501, 0.0152399996, 0.0126999998
  18422, -0.297359914, 0.0152399996, 0.0126999998
  18423, -0.299889326, 0.0152399996, 0.0126999998
  18424, -0.302418739, 0.0152399996, 0.0126999998
  18425, -0.304948181, 0.0152399996, 0.0126999998
  18426, -0.307477593, 0.0152399996, 0.0126999998
  18427, -0.310007006, 0.0152399996, 0.0126999998
  18428, -0.294830501, 0.0177800003, 0.0126999998
  18429, -0.297359914, 0.0177800003, 0.0126999998
  18430, -0.299889326, 0.0177800003, 0.0126999998
  18431, -0.302418739, 0.0177800003, 0.0126999998
  18432, -0.304948181, 0.0177800003, 0.0126999998
  18433, -0.307477593, 0.0177800003, 0.0126999998
** ... 18393 like lines cut
*Element, type=C3D8R
14741, 18456, 18457, 18464, 18463, 18414, 18415, 18422, 18421
14742, 18457, 18458, 18465, 18464, 18415, 18416, 18423, 18422
14743, 18458, 18459, 18466, 18465, 18416, 18417, 18424, 18423
14744, 18459, 18460, 18467, 18466, 18417, 18418, 18425, 18424
14745, 18460, 18461, 18468, 18467, 18418, 18419, 18426, 18425
14746, 18461, 18462, 18469, 18468, 18419, 18420, 18427, 18426
14747, 18463, 18464, 18471, 18470, 18421, 18422, 18429, 18428
14748, 18464, 18465, 18472, 18471, 18422, 18423, 18430, 18429
14749, 18465, 18466, 18473, 18472, 18423, 18424, 18431, 18430
14750, 18466, 18467, 18474, 18473, 18424, 18425, 18432, 18431
14751, 18467, 18468, 18475, 18474, 18425, 18426, 18433, 18432
14752, 18468, 18469, 18476, 18475, 18426, 18427, 18434, 18433
14753, 18470, 18471, 18478, 18477, 18428, 18429, 18436, 18435
14754, 18471, 18472, 18479, 18478, 18429, 18430, 18437, 18436
14755, 18472, 18473, 18480, 18479, 18430, 18431, 18438, 18437
14756, 18473, 18474, 18481, 18480, 18431, 18432, 18439, 18438
14757, 18474, 18475, 18482, 18481, 18432, 18433, 18440, 18439
14758, 18475, 18476, 18483, 18482, 18433, 18434, 18441, 18440
14759, 18477, 18478, 18485, 18484, 18435, 18436, 18443, 18442
14760, 18478, 18479, 18486, 18485, 18436, 18437, 18444, 18443
** ... 14720 like lines cut
*Nset, nset=BRB_TOP-1_Set-1, generate
 18414,  36826,      1
*Elset, elset=BRB_TOP-1_Set-1, generate
 14741,  29480,      1
** Section: Section-1
*Solid Section, elset=BRB_TOP-1_Set-1, material=STEEL
,
** ----------------------------------------------------------------
** 
** PART INSTANCE: BOLT-1
** 
*System
   -0.030353,          0.,-0.019446875,    0.969647,          0.,-0.019446875
*Node
  36827, 0.00396875013,           0., 0.00515937479
  36828, 0.00396875013,           0., 0.0194463748
  36829, 0.00396875013,           0., 0.0337343737
  36830, 0.00396875013,           0., 0.0388937518
  36831, 0.00396875013,           0., 0.0432593748
  36832, 0.00634999992, -0.00366617413, 0.00515937479
  36833, 0.00634999992, 0.00366617413, 0.00515937479
  36834,           0., 0.00733234826, 0.00515937479
  36835, -0.00634999992, 0.00366617413, 0.00515937479
  36836, -0.00634999992, -0.00366617413, 0.00515937479
  36837,           0., -0.00733234826, 0.00515937479
  36838,           0., 0.00733234826, -2.07871192e-10
  36839, 0.00634999992, 0.00366617413, -2.07871192e-10
  36840, 0.00634999992, -0.00366617413, -2.07871192e-10
  36841,           0., -0.00733234826, -2.07871192e-10
  36842, -0.00634999992, -0.00366617413, -2.07871192e-10
  36843, -0.00634999992, 0.00366617413, -2.07871192e-10
  36844, 0.00321078626, -0.00233277283, 0.00515937479
  36845, 0.0012264112, -0.00377450557, 0.00515937479
  36846, -0.0012264112, -0.00377450557, 0.00515937479
** ... 457 like lines cut
*Element, type=C3D8R
29481, 36851, 36850, 36926, 36927, 36949, 36948, 37150, 37151
29482, 36925, 36919, 36929, 36921, 37149, 37143, 37153, 37145
29483, 36849, 36848, 36919, 36925, 36947, 36946, 37143, 37149
29484, 36827, 36852, 36928, 36920, 36941, 36950, 37152, 37144
29485, 36920, 36928, 36927, 36921, 37144, 37152, 37151, 37145
29486, 36925, 36921, 36927, 36926, 37149, 37145, 37151, 37150
29487, 36848, 36847, 36929, 36919, 36946, 36945, 37153, 37143
29488, 36929, 36847, 36846, 36924, 37153, 36945, 36944, 37148
29489, 36922, 36844, 36827, 36920, 37146, 36942, 36941, 37144
29490, 36845, 36923, 36924, 36846, 36943, 37147, 37148, 36944
29491, 36845, 36844, 36922, 36923, 36943, 36942, 37146, 37147
29492, 36921, 36923, 36922, 36920, 37145, 37147, 37146, 37144
29493, 36923, 36921, 36929, 36924, 37147, 37145, 37153, 37148
29494, 36850, 36849, 36925, 36926, 36948, 36947, 37149, 37150
29495, 36928, 36852, 36851, 36927, 37152, 36950, 36949, 37151
29496, 36949, 36948, 37150, 37151, 36959, 36958, 37161, 37162
29497, 37149, 37143, 37153, 37145, 37160, 37154, 37164, 37156
29498, 36947, 36946, 37143, 37149, 36957, 36956, 37154, 37160
29499, 36941, 36950, 37152, 37144, 36951, 36960, 37163, 37155
29500, 37144, 37152, 37151, 37145, 37155, 37163, 37162, 37156
** ... 294 like lines cut
*Nset, nset=BOLT-1_Set-1, generate
36827, 37303,    1
*Elset, elset=BOLT-1_Set-1, generate
29481, 29794,    1
** Section: Section-1
*Solid Section, elset=BOLT-1_Set-1, material=STEEL
,
** ----------------------------------------------------------------
** 
** PART INSTANCE: WASHER-1
** 
*System
   -0.030353,          0.,  -0.0142875,    0.969647,          0.,  -0.0142875
*Node
  37304, 0.00378074218, 0.00218281243,           0.
  37305, 0.00218281243, 0.00378074218,           0.
  37306,           0., 0.00436562486,           0.
  37307, -0.00218281243, 0.00378074218,           0.
  37308, -0.00378074218, 0.00218281243,           0.
  37309, -0.00436562486,           0.,           0.
  37310, -0.00378074218, -0.00218281243,           0.
  37311, -0.00218281243, -0.00378074218,           0.
  37312,           0., -0.00436562486,           0.
  37313, 0.00218281243, -0.00378074218,           0.
  37314, 0.00378074218, -0.00218281243,           0.
  37315, 0.00436562486,           0.,           0.
  37316, 0.00837757345, 0.0024598774,           0.
  37317, 0.00734519493, 0.00472046994,           0.
  37318, 0.00571775297, 0.00659863837,           0.
  37319, 0.00362709234, 0.00794222392,           0.
  37320, 0.00124258641, 0.00864237826,           0.
  37321, -0.00124258641, 0.00864237826,           0.
  37322, -0.00362709234, 0.00794222392,           0.
  37323, -0.00571775297, 0.00659863837,           0.
** ... 92 like lines cut
*Element, type=C3D8R
29795, 37394, 37374, 37373, 37398, 37338, 37318, 37317, 37342
29796, 37395, 37394, 37361, 37396, 37339, 37338, 37305, 37340
29797, 37374, 37394, 37395, 37375, 37318, 37338, 37339, 37319
29798, 37395, 37396, 37376, 37375, 37339, 37340, 37320, 37319
29799, 37376, 37396, 37397, 37377, 37320, 37340, 37341, 37321
29800, 37399, 37397, 37362, 37363, 37343, 37341, 37306, 37307
29801, 37377, 37397, 37399, 37378, 37321, 37341, 37343, 37322
29802, 37378, 37399, 37400, 37379, 37322, 37343, 37344, 37323
29803, 37363, 37401, 37400, 37399, 37307, 37345, 37344, 37343
29804, 37379, 37400, 37401, 37380, 37323, 37344, 37345, 37324
29805, 37380, 37401, 37402, 37381, 37324, 37345, 37346, 37325
29806, 37402, 37364, 37365, 37403, 37346, 37308, 37309, 37347
29807, 37381, 37402, 37403, 37382, 37325, 37346, 37347, 37326
29808, 37383, 37415, 37404, 37384, 37327, 37359, 37348, 37328
29809, 37405, 37366, 37367, 37407, 37349, 37310, 37311, 37351
29810, 37406, 37407, 37367, 37368, 37350, 37351, 37311, 37312
29811, 37386, 37407, 37406, 37387, 37330, 37351, 37350, 37331
29812, 37385, 37405, 37407, 37386, 37329, 37349, 37351, 37330
29813, 37368, 37408, 37409, 37406, 37312, 37352, 37353, 37350
29814, 37414, 37369, 37370, 37410, 37358, 37313, 37314, 37354
** ... 19 like lines cut
*Nset, nset=WASHER-1_Set-1, generate
37304, 37415,    1
*Elset, elset=WASHER-1_Set-1, generate
29795, 29833,   1
** Section: Section-1
*Solid Section, elset=WASHER-1_Set-1, material=STEEL
,
** ----------------------------------------------------------------
** 
** PART INSTANCE: BOLT-2
** 
*System
          0.,          0.,-0.019446875,          1.,          0.,-0.019446875
*Node
  37416, 0.00396875013,           0., 0.00515937479
  37417, 0.00396875013,           0., 0.0194463748
  37418, 0.00396875013,           0., 0.0337343737
  37419, 0.00396875013,           0., 0.0388937518
  37420, 0.00396875013,           0., 0.0432593748
  37421, 0.00634999992, -0.00366617413, 0.00515937479
  37422, 0.00634999992, 0.00366617413, 0.00515937479
  37423,           0., 0.00733234826, 0.00515937479
  37424, -0.00634999992, 0.00366617413, 0.00515937479
  37425, -0.00634999992, -0.00366617413, 0.00515937479
  37426,           0., -0.00733234826, 0.00515937479
  37427,           0., 0.00733234826, -2.07871192e-10
  37428, 0.00634999992, 0.00366617413, -2.07871192e-10
  37429, 0.00634999992, -0.00366617413, -2.07871192e-10
  37430,           0., -0.00733234826, -2.07871192e-10
  37431, -0.00634999992, -0.00366617413, -2.07871192e-10
  37432, -0.00634999992, 0.00366617413, -2.07871192e-10
  37433, 0.00321078626, -0.00233277283, 0.00515937479
  37434, 0.0012264112, -0.00377450557, 0.00515937479
  37435, -0.0012264112, -0.00377450557, 0.00515937479
** ... 457 like lines cut
*Element, type=C3D8R
29834, 37440, 37439, 37515, 37516, 37538, 37537, 37739, 37740
29835, 37514, 37508, 37518, 37510, 37738, 37732, 37742, 37734
29836, 37438, 37437, 37508, 37514, 37536, 37535, 37732, 37738
29837, 37416, 37441, 37517, 37509, 37530, 37539, 37741, 37733
29838, 37509, 37517, 37516, 37510, 37733, 37741, 37740, 37734
29839, 37514, 37510, 37516, 37515, 37738, 37734, 37740, 37739
29840, 37437, 37436, 37518, 37508, 37535, 37534, 37742, 37732
29841, 37518, 37436, 37435, 37513, 37742, 37534, 37533, 37737
29842, 37511, 37433, 37416, 37509, 37735, 37531, 37530, 37733
29843, 37434, 37512, 37513, 37435, 37532, 37736, 37737, 37533
29844, 37434, 37433, 37511, 37512, 37532, 37531, 37735, 37736
29845, 37510, 37512, 37511, 37509, 37734, 37736, 37735, 37733
29846, 37512, 37510, 37518, 37513, 37736, 37734, 37742, 37737
29847, 37439, 37438, 37514, 37515, 37537, 37536, 37738, 37739
29848, 37517, 37441, 37440, 37516, 37741, 37539, 37538, 37740
29849, 37538, 37537, 37739, 37740, 37548, 37547, 37750, 37751
29850, 37738, 37732, 37742, 37734, 37749, 37743, 37753, 37745
29851, 37536, 37535, 37732, 37738, 37546, 37545, 37743, 37749
29852, 37530, 37539, 37741, 37733, 37540, 37549, 37752, 37744
29853, 37733, 37741, 37740, 37734, 37744, 37752, 37751, 37745
** ... 294 like lines cut
*Nset, nset=BOLT-2_Set-1, generate
37416, 37892,    1
*Elset, elset=BOLT-2_Set-1, generate
29834, 30147,    1
** Section: Section-1
*Solid Section, elset=BOLT-2_Set-1, material=STEEL
,
** ----------------------------------------------------------------
** 
** PART INSTANCE: WASHER-2
** 
*System
          0.,          0.,  -0.0142875,          1.,          0.,  -0.0142875
*Node
  37893, 0.00378074218, 0.00218281243,           0.
  37894, 0.00218281243, 0.00378074218,           0.
  37895,           0., 0.00436562486,           0.
  37896, -0.00218281243, 0.00378074218,           0.
  37897, -0.00378074218, 0.00218281243,           0.
  37898, -0.00436562486,           0.,           0.
  37899, -0.00378074218, -0.00218281243,           0.
  37900, -0.00218281243, -0.00378074218,           0.
  37901,           0., -0.00436562486,           0.
  37902, 0.00218281243, -0.00378074218,           0.
  37903, 0.00378074218, -0.00218281243,           0.
  37904, 0.00436562486,           0.,           0.
  37905, 0.00837757345, 0.0024598774,           0.
  37906, 0.00734519493, 0.00472046994,           0.
  37907, 0.00571775297, 0.00659863837,           0.
  37908, 0.00362709234, 0.00794222392,           0.
  37909, 0.00124258641, 0.00864237826,           0.
  37910, -0.00124258641, 0.00864237826,           0.
  37911, -0.00362709234, 0.00794222392,           0.
  37912, -0.00571775297, 0.00659863837,           0.
** ... 92 like lines cut
*Element, type=C3D8R
30148, 37983, 37963, 37962, 37987, 37927, 37907, 37906, 37931
30149, 37984, 37983, 37950, 37985, 37928, 37927, 37894, 37929
30150, 37963, 37983, 37984, 37964, 37907, 37927, 37928, 37908
30151, 37984, 37985, 37965, 37964, 37928, 37929, 37909, 37908
30152, 37965, 37985, 37986, 37966, 37909, 37929, 37930, 37910
30153, 37988, 37986, 37951, 37952, 37932, 37930, 37895, 37896
30154, 37966, 37986, 37988, 37967, 37910, 37930, 37932, 37911
30155, 37967, 37988, 37989, 37968, 37911, 37932, 37933, 37912
30156, 37952, 37990, 37989, 37988, 37896, 37934, 37933, 37932
30157, 37968, 37989, 37990, 37969, 37912, 37933, 37934, 37913
30158, 37969, 37990, 37991, 37970, 37913, 37934, 37935, 37914
30159, 37991, 37953, 37954, 37992, 37935, 37897, 37898, 37936
30160, 37970, 37991, 37992, 37971, 37914, 37935, 37936, 37915
30161, 37972, 38004, 37993, 37973, 37916, 37948, 37937, 37917
30162, 37994, 37955, 37956, 37996, 37938, 37899, 37900, 37940
30163, 37995, 37996, 37956, 37957, 37939, 37940, 37900, 37901
30164, 37975, 37996, 37995, 37976, 37919, 37940, 37939, 37920
30165, 37974, 37994, 37996, 37975, 37918, 37938, 37940, 37919
30166, 37957, 37997, 37998, 37995, 37901, 37941, 37942, 37939
30167, 38003, 37958, 37959, 37999, 37947, 37902, 37903, 37943
** ... 19 like lines cut
*Nset, nset=WASHER-2_Set-1, generate
37893, 38004,    1
*Elset, elset=WASHER-2_Set-1, generate
30148, 30186,   1
** Section: Section-1
*Solid Section, elset=WASHER-2_Set-1, material=STEEL
,
** ----------------------------------------------------------------
** 
** PART INSTANCE: BOLT-3
** 
*System
    0.030353,          0.,-0.019446875,    1.030353,          0.,-0.019446875
*Node
  38005, 0.00396875013,           0., 0.00515937479
  38006, 0.00396875013,           0., 0.0194463748
  38007, 0.00396875013,           0., 0.0337343737
  38008, 0.00396875013,           0., 0.0388937518
  38009, 0.00396875013,           0., 0.0432593748
  38010, 0.00634999992, -0.00366617413, 0.00515937479
  38011, 0.00634999992, 0.00366617413, 0.00515937479
  38012,           0., 0.00733234826, 0.00515937479
  38013, -0.00634999992, 0.00366617413, 0.00515937479
  38014, -0.00634999992, -0.00366617413, 0.00515937479
  38015,           0., -0.00733234826, 0.00515937479
  38016,           0., 0.00733234826, -2.07871192e-10
  38017, 0.00634999992, 0.00366617413, -2.07871192e-10
  38018, 0.00634999992, -0.00366617413, -2.07871192e-10
  38019,           0., -0.00733234826, -2.07871192e-10
  38020, -0.00634999992, -0.00366617413, -2.07871192e-10
  38021, -0.00634999992, 0.00366617413, -2.07871192e-10
  38022, 0.00321078626, -0.00233277283, 0.00515937479
  38023, 0.0012264112, -0.00377450557, 0.00515937479
  38024, -0.0012264112, -0.00377450557, 0.00515937479
** ... 457 like lines cut
*Element, type=C3D8R
30187, 38029, 38028, 38104, 38105, 38127, 38126, 38328, 38329
30188, 38103, 38097, 38107, 38099, 38327, 38321, 38331, 38323
30189, 38027, 38026, 38097, 38103, 38125, 38124, 38321, 38327
30190, 38005, 38030, 38106, 38098, 38119, 38128, 38330, 38322
30191, 38098, 38106, 38105, 38099, 38322, 38330, 38329, 38323
30192, 38103, 38099, 38105, 38104, 38327, 38323, 38329, 38328
30193, 38026, 38025, 38107, 38097, 38124, 38123, 38331, 38321
30194, 38107, 38025, 38024, 38102, 38331, 38123, 38122, 38326
30195, 38100, 38022, 38005, 38098, 38324, 38120, 38119, 38322
30196, 38023, 38101, 38102, 38024, 38121, 38325, 38326, 38122
30197, 38023, 38022, 38100, 38101, 38121, 38120, 38324, 38325
30198, 38099, 38101, 38100, 38098, 38323, 38325, 38324, 38322
30199, 38101, 38099, 38107, 38102, 38325, 38323, 38331, 38326
30200, 38028, 38027, 38103, 38104, 38126, 38125, 38327, 38328
30201, 38106, 38030, 38029, 38105, 38330, 38128, 38127, 38329
30202, 38127, 38126, 38328, 38329, 38137, 38136, 38339, 38340
30203, 38327, 38321, 38331, 38323, 38338, 38332, 38342, 38334
30204, 38125, 38124, 38321, 38327, 38135, 38134, 38332, 38338
30205, 38119, 38128, 38330, 38322, 38129, 38138, 38341, 38333
30206, 38322, 38330, 38329, 38323, 38333, 38341, 38340, 38334
** ... 294 like lines cut
*Nset, nset=BOLT-3_Set-1, generate
38005, 38481,    1
*Elset, elset=BOLT-3_Set-1, generate
30187, 30500,    1
** Section: Section-1
*Solid Section, elset=BOLT-3_Set-1, material=STEEL
,
** ----------------------------------------------------------------
** 
** PART INSTANCE: WASHER-3
** 
*System
    0.030353,          0.,  -0.0142875,    1.030353,          0.,  -0.0142875
*Node
  38482, 0.00378074218, 0.00218281243,           0.
  38483, 0.00218281243, 0.00378074218,           0.
  38484,           0., 0.00436562486,           0.
  38485, -0.00218281243, 0.00378074218,           0.
  38486, -0.00378074218, 0.00218281243,           0.
  38487, -0.00436562486,           0.,           0.
  38488, -0.00378074218, -0.00218281243,           0.
  38489, -0.00218281243, -0.00378074218,           0.
  38490,           0., -0.00436562486,           0.
  38491, 0.00218281243, -0.00378074218,           0.
  38492, 0.00378074218, -0.00218281243,           0.
  38493, 0.00436562486,           0.,           0.
  38494, 0.00837757345, 0.0024598774,           0.
  38495, 0.00734519493, 0.00472046994,           0.
  38496, 0.00571775297, 0.00659863837,           0.
  38497, 0.00362709234, 0.00794222392,           0.
  38498, 0.00124258641, 0.00864237826,           0.
  38499, -0.00124258641, 0.00864237826,           0.
  38500, -0.00362709234, 0.00794222392,           0.
  38501, -0.00571775297, 0.00659863837,           0.
** ... 92 like lines cut
*Element, type=C3D8R
30501, 38572, 38552, 38551, 38576, 38516, 38496, 38495, 38520
30502, 38573, 38572, 38539, 38574, 38517, 38516, 38483, 38518
30503, 38552, 38572, 38573, 38553, 38496, 38516, 38517, 38497
30504, 38573, 38574, 38554, 38553, 38517, 38518, 38498, 38497
30505, 38554, 38574, 38575, 38555, 38498, 38518, 38519, 38499
30506, 38577, 38575, 38540, 38541, 38521, 38519, 38484, 38485
30507, 38555, 38575, 38577, 38556, 38499, 38519, 38521, 38500
30508, 38556, 38577, 38578, 38557, 38500, 38521, 38522, 38501
30509, 38541, 38579, 38578, 38577, 38485, 38523, 38522, 38521
30510, 38557, 38578, 38579, 38558, 38501, 38522, 38523, 38502
30511, 38558, 38579, 38580, 38559, 38502, 38523, 38524, 38503
30512, 38580, 38542, 38543, 38581, 38524, 38486, 38487, 38525
30513, 38559, 38580, 38581, 38560, 38503, 38524, 38525, 38504
30514, 38561, 38593, 38582, 38562, 38505, 38537, 38526, 38506
30515, 38583, 38544, 38545, 38585, 38527, 38488, 38489, 38529
30516, 38584, 38585, 38545, 38546, 38528, 38529, 38489, 38490
30517, 38564, 38585, 38584, 38565, 38508, 38529, 38528, 38509
30518, 38563, 38583, 38585, 38564, 38507, 38527, 38529, 38508
30519, 38546, 38586, 38587, 38584, 38490, 38530, 38531, 38528
30520, 38592, 38547, 38548, 38588, 38536, 38491, 38492, 38532
** ... 19 like lines cut
*Nset, nset=WASHER-3_Set-1, generate
38482, 38593,    1
*Elset, elset=WASHER-3_Set-1, generate
30501, 30539,   1
** Section: Section-1
*Solid Section, elset=WASHER-3_Set-1, material=STEEL
,
** ----------------------------------------------------------------
** 
** PART INSTANCE: NUT-1
** 
*System
   -0.030353,          0.,   0.0142875,    0.969647,          0.,   0.0142875
*Node
  38594, 0.00321078626, 0.00233277283,           0.
  38595, 0.0012264112, 0.00377450557,           0.
  38596, -0.0012264112, 0.00377450557,           0.
  38597, -0.00321078626, 0.00233277283,           0.
  38598, -0.00396875013,           0.,           0.
  38599, -0.00321078626, -0.00233277283,           0.
  38600, -0.0012264112, -0.00377450557,           0.
  38601, 0.0012264112, -0.00377450557,           0.
  38602, 0.00321078626, -0.00233277283,           0.
  38603, 0.00396875013,           0.,           0.
  38604, 0.00634999992, 0.00366617413,           0.
  38605,           0., 0.00733234826,           0.
  38606, 0.00634999992, -0.00366617413,           0.
  38607,           0., -0.00733234826,           0.
  38608, -0.00634999992, -0.00366617413,           0.
  38609, -0.00634999992, 0.00366617413,           0.
  38610, 0.00423333328, 0.00488823233,           0.
  38611, 0.00211666664, 0.00611029053,           0.
  38612, 0.00634999992, -0.00122205808,           0.
  38613, 0.00634999992, 0.00122205808,           0.
** ... 79 like lines cut
*Element, type=C3D8R
30540, 38604, 38594, 38603, 38613, 38637, 38627, 38636, 38646
30541, 38622, 38595, 38610, 38611, 38655, 38628, 38643, 38644
30542, 38611, 38605, 38620, 38622, 38644, 38638, 38653, 38655
30543, 38624, 38597, 38596, 38623, 38657, 38630, 38629, 38656
30544, 38623, 38621, 38609, 38624, 38656, 38654, 38642, 38657
30545, 38619, 38598, 38597, 38618, 38652, 38631, 38630, 38651
30546, 38626, 38599, 38598, 38619, 38659, 38632, 38631, 38652
30547, 38600, 38599, 38626, 38625, 38633, 38632, 38659, 38658
30548, 38617, 38607, 38614, 38625, 38650, 38640, 38647, 38658
30549, 38614, 38615, 38602, 38601, 38647, 38648, 38635, 38634
30550, 38612, 38602, 38615, 38606, 38645, 38635, 38648, 38639
30551, 38613, 38603, 38602, 38612, 38646, 38636, 38635, 38645
30552, 38614, 38601, 38600, 38625, 38647, 38634, 38633, 38658
30553, 38595, 38594, 38604, 38610, 38628, 38627, 38637, 38643
30554, 38616, 38626, 38619, 38608, 38649, 38659, 38652, 38641
30555, 38597, 38624, 38609, 38618, 38630, 38657, 38642, 38651
30556, 38595, 38622, 38623, 38596, 38628, 38655, 38656, 38629
30557, 38622, 38620, 38621, 38623, 38655, 38653, 38654, 38656
30558, 38626, 38616, 38617, 38625, 38659, 38649, 38650, 38658
30559, 38637, 38627, 38636, 38646, 38670, 38660, 38669, 38679
** ... 18 like lines cut
*Nset, nset=NUT-1_Set-1, generate
38594, 38692,   1
*Elset, elset=NUT-1_Set-1, generate
30540, 30577,   1
** Section: Section-1
*Solid Section, elset=NUT-1_Set-1, material=STEEL
,
** ----------------------------------------------------------------
** 
** PART INSTANCE: WASHER-4
** 
*System
   -0.030353,          0.,      0.0127,    0.969647,          0.,      0.0127
*Node
  38693, 0.00378074218, 0.00218281243,           0.
  38694, 0.00218281243, 0.00378074218,           0.
  38695,           0., 0.00436562486,           0.
  38696, -0.00218281243, 0.00378074218,           0.
  38697, -0.00378074218, 0.00218281243,           0.
  38698, -0.00436562486,           0.,           0.
  38699, -0.00378074218, -0.00218281243,           0.
  38700, -0.00218281243, -0.00378074218,           0.
  38701,           0., -0.00436562486,           0.
  38702, 0.00218281243, -0.00378074218,           0.
  38703, 0.00378074218, -0.00218281243,           0.
  38704, 0.00436562486,           0.,           0.
  38705, 0.00837757345, 0.0024598774,           0.
  38706, 0.00734519493, 0.00472046994,           0.
  38707, 0.00571775297, 0.00659863837,           0.
  38708, 0.00362709234, 0.00794222392,           0.
  38709, 0.00124258641, 0.00864237826,           0.
  38710, -0.00124258641, 0.00864237826,           0.
  38711, -0.00362709234, 0.00794222392,           0.
  38712, -0.00571775297, 0.00659863837,           0.
** ... 92 like lines cut
*Element, type=C3D8R
30578, 38783, 38763, 38762, 38787, 38727, 38707, 38706, 38731
30579, 38784, 38783, 38750, 38785, 38728, 38727, 38694, 38729
30580, 38763, 38783, 38784, 38764, 38707, 38727, 38728, 38708
30581, 38784, 38785, 38765, 38764, 38728, 38729, 38709, 38708
30582, 38765, 38785, 38786, 38766, 38709, 38729, 38730, 38710
30583, 38788, 38786, 38751, 38752, 38732, 38730, 38695, 38696
30584, 38766, 38786, 38788, 38767, 38710, 38730, 38732, 38711
30585, 38767, 38788, 38789, 38768, 38711, 38732, 38733, 38712
30586, 38752, 38790, 38789, 38788, 38696, 38734, 38733, 38732
30587, 38768, 38789, 38790, 38769, 38712, 38733, 38734, 38713
30588, 38769, 38790, 38791, 38770, 38713, 38734, 38735, 38714
30589, 38791, 38753, 38754, 38792, 38735, 38697, 38698, 38736
30590, 38770, 38791, 38792, 38771, 38714, 38735, 38736, 38715
30591, 38772, 38804, 38793, 38773, 38716, 38748, 38737, 38717
30592, 38794, 38755, 38756, 38796, 38738, 38699, 38700, 38740
30593, 38795, 38796, 38756, 38757, 38739, 38740, 38700, 38701
30594, 38775, 38796, 38795, 38776, 38719, 38740, 38739, 38720
30595, 38774, 38794, 38796, 38775, 38718, 38738, 38740, 38719
30596, 38757, 38797, 38798, 38795, 38701, 38741, 38742, 38739
30597, 38803, 38758, 38759, 38799, 38747, 38702, 38703, 38743
** ... 19 like lines cut
*Nset, nset=WASHER-4_Set-1, generate
38693, 38804,    1
*Elset, elset=WASHER-4_Set-1, generate
30578, 30616,   1
** Section: Section-1
*Solid Section, elset=WASHER-4_Set-1, material=STEEL
,
** ----------------------------------------------------------------
** 
** PART INSTANCE: NUT-2
** 
*System
          0.,          0.,   0.0142875,          1.,          0.,   0.0142875
*Node
  38805, 0.00321078626, 0.00233277283,           0.
  38806, 0.0012264112, 0.00377450557,           0.
  38807, -0.0012264112, 0.00377450557,           0.
  38808, -0.00321078626, 0.00233277283,           0.
  38809, -0.00396875013,           0.,           0.
  38810, -0.00321078626, -0.00233277283,           0.
  38811, -0.0012264112, -0.00377450557,           0.
  38812, 0.0012264112, -0.00377450557,           0.
  38813, 0.00321078626, -0.00233277283,           0.
  38814, 0.00396875013,           0.,           0.
  38815, 0.00634999992, 0.00366617413,           0.
  38816,           0., 0.00733234826,           0.
  38817, 0.00634999992, -0.00366617413,           0.
  38818,           0., -0.00733234826,           0.
  38819, -0.00634999992, -0.00366617413,           0.
  38820, -0.00634999992, 0.00366617413,           0.
  38821, 0.00423333328, 0.00488823233,           0.
  38822, 0.00211666664, 0.00611029053,           0.
  38823, 0.00634999992, -0.00122205808,           0.
  38824, 0.00634999992, 0.00122205808,           0.
** ... 79 like lines cut
*Element, type=C3D8R
30617, 38815, 38805, 38814, 38824, 38848, 38838, 38847, 38857
30618, 38833, 38806, 38821, 38822, 38866, 38839, 38854, 38855
30619, 38822, 38816, 38831, 38833, 38855, 38849, 38864, 38866
30620, 38835, 38808, 38807, 38834, 38868, 38841, 38840, 38867
30621, 38834, 38832, 38820, 38835, 38867, 38865, 38853, 38868
30622, 38830, 38809, 38808, 38829, 38863, 38842, 38841, 38862
30623, 38837, 38810, 38809, 38830, 38870, 38843, 38842, 38863
30624, 38811, 38810, 38837, 38836, 38844, 38843, 38870, 38869
30625, 38828, 38818, 38825, 38836, 38861, 38851, 38858, 38869
30626, 38825, 38826, 38813, 38812, 38858, 38859, 38846, 38845
30627, 38823, 38813, 38826, 38817, 38856, 38846, 38859, 38850
30628, 38824, 38814, 38813, 38823, 38857, 38847, 38846, 38856
30629, 38825, 38812, 38811, 38836, 38858, 38845, 38844, 38869
30630, 38806, 38805, 38815, 38821, 38839, 38838, 38848, 38854
30631, 38827, 38837, 38830, 38819, 38860, 38870, 38863, 38852
30632, 38808, 38835, 38820, 38829, 38841, 38868, 38853, 38862
30633, 38806, 38833, 38834, 38807, 38839, 38866, 38867, 38840
30634, 38833, 38831, 38832, 38834, 38866, 38864, 38865, 38867
30635, 38837, 38827, 38828, 38836, 38870, 38860, 38861, 38869
30636, 38848, 38838, 38847, 38857, 38881, 38871, 38880, 38890
** ... 18 like lines cut
*Nset, nset=NUT-2_Set-1, generate
38805, 38903,   1
*Elset, elset=NUT-2_Set-1, generate
30617, 30654,   1
** Section: Section-1
*Solid Section, elset=NUT-2_Set-1, material=STEEL
,
** ----------------------------------------------------------------
** 
** PART INSTANCE: WASHER-5
** 
*System
          0.,          0.,      0.0127,          1.,          0.,      0.0127
*Node
  38904, 0.00378074218, 0.00218281243,           0.
  38905, 0.00218281243, 0.00378074218,           0.
  38906,           0., 0.00436562486,           0.
  38907, -0.00218281243, 0.00378074218,           0.
  38908, -0.00378074218, 0.00218281243,           0.
  38909, -0.00436562486,           0.,           0.
  38910, -0.00378074218, -0.00218281243,           0.
  38911, -0.00218281243, -0.00378074218,           0.
  38912,           0., -0.00436562486,           0.
  38913, 0.00218281243, -0.00378074218,           0.
  38914, 0.00378074218, -0.00218281243,           0.
  38915, 0.00436562486,           0.,           0.
  38916, 0.00837757345, 0.0024598774,           0.
  38917, 0.00734519493, 0.00472046994,           0.
  38918, 0.00571775297, 0.00659863837,           0.
  38919, 0.00362709234, 0.00794222392,           0.
  38920, 0.00124258641, 0.00864237826,           0.
  38921, -0.00124258641, 0.00864237826,           0.
  38922, -0.00362709234, 0.00794222392,           0.
  38923, -0.00571775297, 0.00659863837,           0.
** ... 92 like lines cut
*Element, type=C3D8R
30655, 38994, 38974, 38973, 38998, 38938, 38918, 38917, 38942
30656, 38995, 38994, 38961, 38996, 38939, 38938, 38905, 38940
30657, 38974, 38994, 38995, 38975, 38918, 38938, 38939, 38919
30658, 38995, 38996, 38976, 38975, 38939, 38940, 38920, 38919
30659, 38976, 38996, 38997, 38977, 38920, 38940, 38941, 38921
30660, 38999, 38997, 38962, 38963, 38943, 38941, 38906, 38907
30661, 38977, 38997, 38999, 38978, 38921, 38941, 38943, 38922
30662, 38978, 38999, 39000, 38979, 38922, 38943, 38944, 38923
30663, 38963, 39001, 39000, 38999, 38907, 38945, 38944, 38943
30664, 38979, 39000, 39001, 38980, 38923, 38944, 38945, 38924
30665, 38980, 39001, 39002, 38981, 38924, 38945, 38946, 38925
30666, 39002, 38964, 38965, 39003, 38946, 38908, 38909, 38947
30667, 38981, 39002, 39003, 38982, 38925, 38946, 38947, 38926
30668, 38983, 39015, 39004, 38984, 38927, 38959, 38948, 38928
30669, 39005, 38966, 38967, 39007, 38949, 38910, 38911, 38951
30670, 39006, 39007, 38967, 38968, 38950, 38951, 38911, 38912
30671, 38986, 39007, 39006, 38987, 38930, 38951, 38950, 38931
30672, 38985, 39005, 39007, 38986, 38929, 38949, 38951, 38930
30673, 38968, 39008, 39009, 39006, 38912, 38952, 38953, 38950
30674, 39014, 38969, 38970, 39010, 38958, 38913, 38914, 38954
** ... 19 like lines cut
*Nset, nset=WASHER-5_Set-1, generate
38904, 39015,    1
*Elset, elset=WASHER-5_Set-1, generate
30655, 30693,   1
** Section: Section-1
*Solid Section, elset=WASHER-5_Set-1, material=STEEL
,
** ----------------------------------------------------------------
** 
** PART INSTANCE: NUT-3
** 
*System
    0.030353,          0.,   0.0142875,    1.030353,          0.,   0.0142875
*Node
  39016, 0.00321078626, 0.00233277283,           0.
  39017, 0.0012264112, 0.00377450557,           0.
  39018, -0.0012264112, 0.00377450557,           0.
  39019, -0.00321078626, 0.00233277283,           0.
  39020, -0.00396875013,           0.,           0.
  39021, -0.00321078626, -0.00233277283,           0.
  39022, -0.0012264112, -0.00377450557,           0.
  39023, 0.0012264112, -0.00377450557,           0.
  39024, 0.00321078626, -0.00233277283,           0.
  39025, 0.00396875013,           0.,           0.
  39026, 0.00634999992, 0.00366617413,           0.
  39027,           0., 0.00733234826,           0.
  39028, 0.00634999992, -0.00366617413,           0.
  39029,           0., -0.00733234826,           0.
  39030, -0.00634999992, -0.00366617413,           0.
  39031, -0.00634999992, 0.00366617413,           0.
  39032, 0.00423333328, 0.00488823233,           0.
  39033, 0.00211666664, 0.00611029053,           0.
  39034, 0.00634999992, -0.00122205808,           0.
  39035, 0.00634999992, 0.00122205808,           0.
** ... 79 like lines cut
*Element, type=C3D8R
30694, 39026, 39016, 39025, 39035, 39059, 39049, 39058, 39068
30695, 39044, 39017, 39032, 39033, 39077, 39050, 39065, 39066
30696, 39033, 39027, 39042, 39044, 39066, 39060, 39075, 39077
30697, 39046, 39019, 39018, 39045, 39079, 39052, 39051, 39078
30698, 39045, 39043, 39031, 39046, 39078, 39076, 39064, 39079
30699, 39041, 39020, 39019, 39040, 39074, 39053, 39052, 39073
30700, 39048, 39021, 39020, 39041, 39081, 39054, 39053, 39074
30701, 39022, 39021, 39048, 39047, 39055, 39054, 39081, 39080
30702, 39039, 39029, 39036, 39047, 39072, 39062, 39069, 39080
30703, 39036, 39037, 39024, 39023, 39069, 39070, 39057, 39056
30704, 39034, 39024, 39037, 39028, 39067, 39057, 39070, 39061
30705, 39035, 39025, 39024, 39034, 39068, 39058, 39057, 39067
30706, 39036, 39023, 39022, 39047, 39069, 39056, 39055, 39080
30707, 39017, 39016, 39026, 39032, 39050, 39049, 39059, 39065
30708, 39038, 39048, 39041, 39030, 39071, 39081, 39074, 39063
30709, 39019, 39046, 39031, 39040, 39052, 39079, 39064, 39073
30710, 39017, 39044, 39045, 39018, 39050, 39077, 39078, 39051
30711, 39044, 39042, 39043, 39045, 39077, 39075, 39076, 39078
30712, 39048, 39038, 39039, 39047, 39081, 39071, 39072, 39080
30713, 39059, 39049, 39058, 39068, 39092, 39082, 39091, 39101
** ... 18 like lines cut
*Nset, nset=NUT-3_Set-1, generate
39016, 39114,   1
*Elset, elset=NUT-3_Set-1, generate
30694, 30731,   1
** Section: Section-1
*Solid Section, elset=NUT-3_Set-1, material=STEEL
,
** ----------------------------------------------------------------
** 
** PART INSTANCE: WASHER-6
** 
*System
    0.030353,          0.,      0.0127,    1.030353,          0.,      0.0127
*Node
  39115, 0.00378074218, 0.00218281243,           0.
  39116, 0.00218281243, 0.00378074218,           0.
  39117,           0., 0.00436562486,           0.
  39118, -0.00218281243, 0.00378074218,           0.
  39119, -0.00378074218, 0.00218281243,           0.
  39120, -0.00436562486,           0.,           0.
  39121, -0.00378074218, -0.00218281243,           0.
  39122, -0.00218281243, -0.00378074218,           0.
  39123,           0., -0.00436562486,           0.
  39124, 0.00218281243, -0.00378074218,           0.
  39125, 0.00378074218, -0.00218281243,           0.
  39126, 0.00436562486,           0.,           0.
  39127, 0.00837757345, 0.0024598774,           0.
  39128, 0.00734519493, 0.00472046994,           0.
  39129, 0.00571775297, 0.00659863837,           0.
  39130, 0.00362709234, 0.00794222392,           0.
  39131, 0.00124258641, 0.00864237826,           0.
  39132, -0.00124258641, 0.00864237826,           0.
  39133, -0.00362709234, 0.00794222392,           0.
  39134, -0.00571775297, 0.00659863837,           0.
** ... 92 like lines cut
*Element, type=C3D8R
30732, 39205, 39185, 39184, 39209, 39149, 39129, 39128, 39153
30733, 39206, 39205, 39172, 39207, 39150, 39149, 39116, 39151
30734, 39185, 39205, 39206, 39186, 39129, 39149, 39150, 39130
30735, 39206, 39207, 39187, 39186, 39150, 39151, 39131, 39130
30736, 39187, 39207, 39208, 39188, 39131, 39151, 39152, 39132
30737, 39210, 39208, 39173, 39174, 39154, 39152, 39117, 39118
30738, 39188, 39208, 39210, 39189, 39132, 39152, 39154, 39133
30739, 39189, 39210, 39211, 39190, 39133, 39154, 39155, 39134
30740, 39174, 39212, 39211, 39210, 39118, 39156, 39155, 39154
30741, 39190, 39211, 39212, 39191, 39134, 39155, 39156, 39135
30742, 39191, 39212, 39213, 39192, 39135, 39156, 39157, 39136
30743, 39213, 39175, 39176, 39214, 39157, 39119, 39120, 39158
30744, 39192, 39213, 39214, 39193, 39136, 39157, 39158, 39137
30745, 39194, 39226, 39215, 39195, 39138, 39170, 39159, 39139
30746, 39216, 39177, 39178, 39218, 39160, 39121, 39122, 39162
30747, 39217, 39218, 39178, 39179, 39161, 39162, 39122, 39123
30748, 39197, 39218, 39217, 39198, 39141, 39162, 39161, 39142
30749, 39196, 39216, 39218, 39197, 39140, 39160, 39162, 39141
30750, 39179, 39219, 39220, 39217, 39123, 39163, 39164, 39161
30751, 39225, 39180, 39181, 39221, 39169, 39124, 39125, 39165
** ... 19 like lines cut
*Nset, nset=WASHER-6_Set-1, generate
39115, 39226,    1
*Elset, elset=WASHER-6_Set-1, generate
30732, 30770,   1
** Section: Section-1
*Solid Section, elset=WASHER-6_Set-1, material=STEEL
,
** ----------------------------------------------------------------
** 
** PART INSTANCE: B1SHANK
** 
*System
  -0.0303534,          0.,    0.016867,   0.9696466,          0.,    0.016867
*Node
  39227,           0.,           0.,           0.
*Nset, nset=B1SHANK-RefPt_
39227, 
** ----------------------------------------------------------------
** 
** PART INSTANCE: B2SHANK
** 
*System
-4.00000000011502e-07,          0.,    0.016867,   0.9999996,          0.,    0.016867
*Node
  39228,           0.,           0.,           0.
*Nset, nset=B2SHANK-RefPt_
39228, 
** ----------------------------------------------------------------
** 
** PART INSTANCE: B3SHANK
** 
*System
   0.0303526,          0.,    0.016867,   1.0303526,          0.,    0.016867
*Node
  39229,           0.,           0.,           0.
*Nset, nset=B3SHANK-RefPt_
39229, 
** ----------------------------------------------------------------
** 
** PART INSTANCE: N1SHANK
** 
*System
  -0.0303534,          0.,    0.016867,   0.9696466,          0.,    0.016867
*Node
  39230,           0.,           0.,           0.
*Nset, nset=N1SHANK-RefPt_
39230, 
** ----------------------------------------------------------------
** 
** PART INSTANCE: N2SHANK
** 
*System
-4.00000000011502e-07,          0.,    0.016867,   0.9999996,          0.,    0.016867
*Node
  39231,           0.,           0.,           0.
*Nset, nset=N2SHANK-RefPt_
39231, 
** ----------------------------------------------------------------
** 
** PART INSTANCE: N3SHANK
** 
*System
   0.0303526,          0.,    0.016867,   1.0303526,          0.,    0.016867
*Node
  39232,           0.,           0.,           0.
*Nset, nset=N3SHANK-RefPt_
39232, 
*System
*Nset, nset=BSHANK1m
39227,
*Nset, nset=BSHANK2m
39228,
*Nset, nset=BSHANK3m
39229,
*Nset, nset=CB, unsorted
   26, 1195, 1194, 1193, 1192, 1191,    2, 1361, 8070, 8071, 8072, 8073, 8074,  115, 1362, 8075
 8076, 8077, 8078, 8079,  114, 1363, 8080, 8081, 8082, 8083, 8084,  113, 1364, 8085, 8086, 8087
 8088, 8089,  112,   31, 1388, 1389, 1390, 1391, 1392,    1, 6946, 6947, 6948, 6949, 6950, 6951
 6952, 6953, 6954, 6955, 6956, 6957, 6958, 6959, 6960, 6961, 6962, 6963, 6964, 6965, 1205, 1204
 1203, 1202, 1201, 1124, 1125, 1126,   14,   20, 1127, 1154, 1155, 1156, 1157, 1354, 1352, 1351
 1350, 1356, 1355, 1381, 1382, 1177, 1176, 7998,   30,   34,   23, 1178, 1378, 8003, 8000, 7999
 1353, 1380, 8002, 8001, 8005, 8004, 8007, 8006, 8009, 8008, 8012, 8010, 8013, 8011, 1379, 9592
 9588, 2018, 1412, 9589,   35, 2017,   57, 2021, 2019, 2020, 9590, 9591, 1555, 1407, 1165, 1163
 1166, 8132, 8134, 1164, 8131, 8130, 1410, 8133,   38, 1411, 1409, 1408, 1406,   21, 1162, 6828
 6827, 6826, 6831, 6830, 6829, 6833, 6832, 1137, 6839, 6834, 6840, 1132, 6841, 1130, 6835, 6837
 6836,   17, 1129, 1128, 1131, 1138, 6838, 8378, 8377, 8374, 8380, 8379, 8375, 8382, 8381, 8376
 8389, 8388, 8387, 1521, 8385, 1519, 1526,   39, 1524, 1523, 1522, 1424, 1525,   54, 1520, 8386
 1540, 1539, 1538, 1537, 1536, 1423, 1518, 1425,   44, 8383, 8384, 1559, 8469, 8468, 8467, 1558
 1560, 1556, 1466, 8470, 1557,   46, 8466, 1470, 8255, 1460, 1471, 1458, 8256, 8252, 1469, 1457
 1468, 1459, 1467, 8254, 8253, 1456, 1418, 8178, 1443, 1446, 8183, 8185, 1445, 1444, 8180, 8186
 1442, 1417, 1415, 1416, 8177, 8181, 8182, 8179, 8176, 8190, 8191, 8189, 8188, 8187,   42, 8184
 1829, 1830, 1831, 1695, 1913, 1696, 1911, 1506, 1503, 1910, 1921, 1694, 1967, 1720, 1978, 1969
 1968, 1966, 1882, 1650, 1648, 1721, 1987, 1986, 1985, 1984, 1983, 1898, 1897, 1896, 1895, 1894
 1997, 1996, 1995, 1994, 1993, 1647, 1646, 1645, 1644, 1643, 1671, 1672, 1677, 1676, 1675, 1674
 1673, 2011, 1950, 2008, 1578, 2007, 1485, 1590, 1484, 1483, 1592, 1513, 1588, 1959, 1482, 1512
** ... 23 like lines cut
*Nset, nset=CT, unsorted
18414,18415,18416,18417,18418,18419,18420,18456,18457,18458,18459,18460,18461,18462,18498,18499
18500,18501,18502,18503,18504,18540,18541,18542,18543,18544,18545,18546,18582,18583,18584,18585
18586,18587,18588,18624,18625,18626,18627,18628,18629,18630,18676,18677,18678,18679,18680,18681
18682,18683,18684,18685,18686,18687,18688,18689,18690,18691,18692,18693,18694,18695,18726,18727
18728,18729,18730,18738,18739,18740,18741,18763,18774,18776,18777,18778,18779,18882,18886,18887
18888,18891,18892,18896,18897,18901,18902,18906,18908,18909,18910,18912,18916,18918,18921,18927
18928,18930,18936,18937,18938,18939,18940,18941,18942,18943,18944,18945,18946,18947,19010,19081
19083,19085,19087,19089,19090,19092,19100,19101,19102,19103,19114,19115,19129,19165,19175,19180
19183,19189,19192,19193,19196,19197,19202,19205,19215,19224,19233,19236,19244,19246,19251,19304
19305,19306,19307,19308,19309,19310,19311,19312,19313,19314,19315,19316,19319,19321,19322,19328
19329,19330,19332,19333,19334,19337,19338,19472,19473,19474,19475,19476,19477,19478,19479,19480
19481,19482,19483,19486,19491,19496,19499,19500,19505,19506,19508,19510,19511,19513,19514,19517
19534,19535,19536,19537,19538,19550,19557,19560,19561,19562,19563,19639,19646,19647,19648,19649
19659,19663,19664,19668,19673,19678,19681,19708,19724,19728,19729,19736,19738,19743,19746,19756
19757,19758,19764,19767,19769,19771,19796,19801,19802,19805,19810,19817,19820,19831,19832,19835
19838,19841,19843,19845,19849,19856,19866,19867,19868,19869,19870,19871,19872,19873,19882,19883
19959,19960,19961,19963,19966,19967,19968,19969,19971,19972,19978,19979,19980,19984,19987,19994
19995,19997,20000,20004,20007,20009,20014,20015,20016,20017,20018,20024,20025,20026,20027,20028
20034,20035,20036,20037,20038,20044,20045,20046,20047,20048,20054,20055,20067,20068,20069,20070
20071,20073,20078,20081,20082,20084,20086,20088,20089,20090,20092,20093,20096,20103,20104,20105
** ... 23 like lines cut
*Nset, nset=ENDNDS, unsorted
 29097,
*Nset, nset=ENDNDS, unsorted
 3,
*Nset, nset=NSHANK1m
39230,
*Nset, nset=NSHANK2m
39231,
*Nset, nset=NSHANK3m
39232,
*Nset, nset=BOLTNUTSHANK, unsorted
 39227, 39228, 39229, 39230, 39231, 39232
*Elset, elset=_B1MPLANE_S2, generate
29556, 29570,   1
*Surface, type=ELEMENT, name=B1MPLANE
_B1MPLANE_S2, S2
*Elset, elset=_B2MPLANE_S2, generate
29909, 29923,   1
*Surface, type=ELEMENT, name=B2MPLANE
_B2MPLANE_S2, S2
*Elset, elset=_B3MPLANE_S2, generate
30262, 30276,   1
*Surface, type=ELEMENT, name=B3MPLANE
_B3MPLANE_S2, S2
*Elset, elset=_BOLTBOTSURF_S2, generate
29706, 29720,    1
*Elset, elset=_BOLTBOTSURF_S2, generate
30412, 30426,    1
*Elset, elset=_BOLTBOTSURF_S2, generate
30059, 30073,    1
*Surface, type=ELEMENT, name=BOLTBOTSURF
_BOLTBOTSURF_S2, S2
*Elset, elset=_BOTS_S4
  8900,  8902,  8904,  8906,  8908,  8910, 12105, 12107, 12109, 12111, 12113, 12115, 12156, 12158, 12160, 12171
 12173, 12175, 12204, 12206, 12208, 12210, 12212, 12214, 12216, 12218, 12220, 12495, 12497, 12499, 12501, 12503
 12505, 12660, 12662, 12664, 12666, 12668, 12670, 12762, 12764, 12766, 12964, 12967, 12970, 13009, 13012, 13015
 13036, 13039, 13042, 13045, 13048, 13051, 13054, 13057, 13060, 13063, 13066, 13069, 13072, 13075, 13078, 13095
 13100, 13105, 13110, 13115, 13120, 13125, 13130, 13135, 13140, 13145, 13150, 13186, 13189, 13192, 13195, 13198
 13201, 13204, 13207, 13210, 13290, 13295, 13300, 13305, 13310, 13315, 13320, 13325, 13330, 13335, 13340, 13345
 13350, 13355, 13360, 13365, 13370, 13375, 13380, 13385, 13390, 13395, 13400, 13405, 13410, 13415, 13420, 13425
 13430, 13435, 13456, 13459, 13462, 13465, 13468, 13471, 13474, 13477, 13480, 13519, 13522, 13525, 13789, 13792
 13795, 13834, 13837, 13840, 13861, 13864, 13867, 13870, 13873, 13876, 13879, 13882, 13885, 13888, 13891, 13894
 13897, 13900, 13903, 13926, 13928, 13930, 13986, 13988, 13990, 14055, 14060, 14065, 14070, 14075, 14080, 14085
 14090, 14095, 14100, 14105, 14110, 14145, 14147, 14149, 14151, 14153, 14155, 14263, 14266, 14269, 14272, 14275
 14278, 14281, 14284, 14287, 14385, 14390, 14395, 14400, 14405, 14410, 14415, 14420, 14425, 14430, 14435, 14440
 14445, 14450, 14455, 14460, 14465, 14470, 14475, 14480, 14485, 14490, 14495, 14500
*Elset, elset=_BOTS_S3
  8851,  8852,  8853,  8857,  8858,  8859,  8911,  8913,  8915,  8926,  8927,  8928,  8968,  8969,  8970,  8974
  8975,  8976,  8980,  8981,  8982, 12116, 12117, 12118, 12122, 12123, 12124, 12431, 12432, 12433, 12437, 12438
 12439, 12443, 12444, 12445, 12515, 12517, 12519, 12626, 12628, 12630, 12671, 12672, 12673, 12713, 12714, 12715
 12719, 12720, 12721, 12725, 12726, 12727, 12749, 12750, 12753, 12754, 12757, 12758, 12767, 12768, 12769, 12773
 12774, 12775, 12779, 12780, 12781, 12971, 12972, 12977, 12978, 12983, 12984, 13175, 13178, 13181, 13241, 13242
 13243, 13481, 13482, 13487, 13488, 13493, 13494, 13544, 13545, 13546, 13553, 13554, 13555, 13562, 13565, 13568
 13796, 13797, 13802, 13803, 13808, 13809, 13931, 13932, 13933, 13937, 13938, 13939, 13943, 13944, 13945, 14027
 14028, 14031, 14032, 14035, 14036, 14111, 14113, 14115, 14156, 14157, 14158, 14198, 14199, 14200, 14204, 14205
 14206, 14210, 14211, 14212, 14234, 14235, 14238, 14239, 14242, 14243, 14252, 14255, 14258, 14306, 14307, 14308
 14621, 14622, 14631, 14632, 14641, 14642, 14651, 14652, 14661, 14662, 14671, 14672, 14681, 14682, 14691, 14692
 14701, 14702, 14711, 14712, 14721, 14722, 14731, 14732
*Elset, elset=_BOTS_S2
 12521, 12522, 12523, 12524, 12525, 12526, 12533, 12534, 12535, 12821, 12822, 12823, 12827, 12828, 12829, 12830
 12831, 12832, 12839, 12840, 12841, 12842, 12843, 12844, 13250, 13251, 13252, 13253, 13254, 13255, 13268, 13269
 13270, 13271, 13272, 13273, 14039, 14040, 14041, 14042, 14043, 14044, 14321, 14322, 14323, 14324, 14325, 14326
 14339, 14340, 14341, 14342, 14343, 14344
*Elset, elset=_BOTS_S6
  8986,  8991,  8996,  9001,  9006,  9011,  9016,  9021,  9026,  9031,  9036,  9041,  9046,  9051,  9056,  9061
  9066,  9071,  9076,  9081,  9086,  9091,  9096,  9101,  9106,  9111,  9116,  9121,  9126,  9131, 12221, 12226
 12231, 12236, 12241, 12246, 12251, 12256, 12261, 12266, 12271, 12276, 12281, 12286, 12291, 12296, 12301, 12306
 12311, 12316, 12321, 12326, 12331, 12336, 12341, 12346, 12351, 12356, 12361, 12366, 12371, 12376, 12381, 12386
 12391, 12396, 12401, 12406, 12411, 12416, 12421, 12426, 12566, 12571, 12576, 12581, 12586, 12591, 12596, 12601
 12606, 12611, 12616, 12621, 12896, 12901, 12906, 12911, 12916, 12921, 12926, 12931, 12936, 12941, 12946, 12951
 13571, 13576, 13581, 13586, 13591, 13596, 13601, 13606, 13611, 13616, 13621, 13626, 13631, 13636, 13641, 13646
 13651, 13656, 13661, 13666, 13671, 13676, 13681, 13686, 13691, 13696, 13701, 13706, 13711, 13716, 13721, 13726
 13731, 13736, 13741, 13746, 13751, 13756, 13761, 13766, 13771, 13776
*Elset, elset=_BOTS_S5
 14509, 14510, 14519, 14520, 14529, 14530, 14539, 14540, 14549, 14550, 14559, 14560, 14569, 14570, 14579, 14580
 14589, 14590, 14599, 14600, 14609, 14610, 14619, 14620
*Surface, type=ELEMENT, name=BOTS
_BOTS_S4, S4
_BOTS_S3, S3
_BOTS_S2, S2
_BOTS_S6, S6
_BOTS_S5, S5
*Elset, elset=_BSHANK1s_S3
29661,29663,29664,29667,29671,29674,29676,29678,29679,29682,29686,29689
*Elset, elset=_BSHANK1s_S4
29668,29669,29675,29683,29684,29690
*Elset, elset=_BSHANK1s_S6
29670,29685
*Surface, type=ELEMENT, name=BSHANK1s
_BSHANK1s_S3, S3
_BSHANK1s_S4, S4
_BSHANK1s_S6, S6
*Elset, elset=_BSHANK2s_S3
30014,30016,30017,30020,30024,30027,30029,30031,30032,30035,30039,30042
*Elset, elset=_BSHANK2s_S4
30021,30022,30028,30036,30037,30043
*Elset, elset=_BSHANK2s_S6
30023,30038
*Surface, type=ELEMENT, name=BSHANK2s
_BSHANK2s_S3, S3
_BSHANK2s_S4, S4
_BSHANK2s_S6, S6
*Elset, elset=_BSHANK3s_S3
30367,30369,30370,30373,30377,30380,30382,30384,30385,30388,30392,30395
*Elset, elset=_BSHANK3s_S4
30374,30375,30381,30389,30390,30396
*Elset, elset=_BSHANK3s_S6
30376,30391
*Surface, type=ELEMENT, name=BSHANK3s
_BSHANK3s_S3, S3
_BSHANK3s_S4, S4
_BSHANK3s_S6, S6
*Elset, elset=_CB1s_S6
  8986,  8991,  8996,  9001,  9006,  9011,  9016,  9021,  9026,  9031,  9036,  9041,  9046,  9051,  9056,  9061
  9066,  9071,  9076,  9081,  9086,  9091,  9096,  9101,  9106,  9111,  9116,  9121,  9126,  9131, 12221, 12226
 12231, 12236, 12241, 12246, 12251, 12256, 12261, 12266, 12271, 12276, 12281, 12286, 12291, 12296, 12301, 12306
 12311, 12316, 12321, 12326, 12331, 12336, 12341, 12346, 12351, 12356, 12361, 12366
*Surface, type=ELEMENT, name=CB1s
_CB1s_S6, S6
*Elset, elset=_CB2s_S4
  8900,  8902,  8904,  8906,  8908,  8910, 12105, 12107, 12109, 12111, 12113, 12115, 12156, 12158, 12160, 12171
 12173, 12175, 12204, 12206, 12208, 12210, 12212, 12214, 12216, 12218, 12220, 12495, 12497, 12499, 12501, 12503
 12505, 12762, 12764, 12766
*Elset, elset=_CB2s_S3
  8851,  8852,  8853,  8857,  8858,  8859,  8911,  8913,  8915,  8926,  8927,  8928,  8968,  8969,  8970,  8974
  8975,  8976,  8980,  8981,  8982, 12116, 12117, 12118, 12122, 12123, 12124, 12431, 12432, 12433, 12437, 12438
 12439, 12443, 12444, 12445, 12515, 12517, 12519, 12767, 12768, 12769, 12773, 12774, 12775, 12779, 12780, 12781
 14681, 14682, 14691, 14692, 14701, 14702, 14711, 14712, 14721, 14722, 14731, 14732
*Elset, elset=_CB2s_S2
 12521, 12522, 12523, 12524, 12525, 12526, 12533, 12534, 12535, 12821, 12822, 12823, 12827, 12828, 12829, 12830
 12831, 12832, 12839, 12840, 12841, 12842, 12843, 12844
*Elset, elset=_CB2s_S6
 12371, 12376, 12381, 12386, 12391, 12396, 12401, 12406, 12411, 12416, 12421, 12426, 12566, 12571, 12576, 12581
 12586, 12591, 12596, 12601, 12606, 12611, 12616, 12621, 12896, 12901, 12906, 12911, 12916, 12921, 12926, 12931
 12936, 12941, 12946, 12951
*Surface, type=ELEMENT, name=CB2s
_CB2s_S4, S4
_CB2s_S3, S3
_CB2s_S2, S2
_CB2s_S6, S6
*Elset, elset=_CB3s_S4
 12660, 12662, 12664, 12666, 12668, 12670, 12964, 12967, 12970, 13009, 13012, 13015, 13036, 13039, 13042, 13045
 13048, 13051, 13054, 13057, 13060, 13063, 13066, 13069, 13072, 13075, 13078, 13095, 13100, 13105, 13110, 13115
 13120, 13125, 13130, 13135, 13140, 13145, 13150, 13926, 13928, 13930, 13986, 13988, 13990, 14055, 14060, 14065
 14070, 14075, 14080, 14085, 14090, 14095, 14100, 14105, 14110, 14263, 14266, 14269, 14272, 14275, 14278, 14281
 14284, 14287, 14385, 14390, 14395, 14400, 14405, 14410, 14415, 14420, 14425, 14430, 14435, 14440
*Elset, elset=_CB3s_S3
 12626, 12628, 12630, 12671, 12672, 12673, 12713, 12714, 12715, 12719, 12720, 12721, 12725, 12726, 12727, 12749
 12750, 12753, 12754, 12757, 12758, 12971, 12972, 12977, 12978, 12983, 12984, 13931, 13932, 13933, 13937, 13938
 13939, 13943, 13944, 13945, 14027, 14028, 14031, 14032, 14035, 14036, 14252, 14255, 14258, 14306, 14307, 14308
 14621, 14622, 14631, 14632, 14641, 14642, 14651, 14652, 14661, 14662, 14671, 14672
*Elset, elset=_CB3s_S2
 14039, 14040, 14041, 14042, 14043, 14044, 14321, 14322, 14323, 14324, 14325, 14326, 14339, 14340, 14341, 14342
 14343, 14344
*Surface, type=ELEMENT, name=CB3s
_CB3s_S4, S4
_CB3s_S3, S3
_CB3s_S2, S2
*Elset, elset=_CB4s_S4
 13186, 13189, 13192, 13195, 13198, 13201, 13204, 13207, 13210, 13456, 13459, 13462, 13465, 13468, 13471, 13474
 13477, 13480, 13519, 13522, 13525, 13789, 13792, 13795, 13834, 13837, 13840, 13861, 13864, 13867, 13870, 13873
 13876, 13879, 13882, 13885, 13888, 13891, 13894, 13897, 13900, 13903, 14145, 14147, 14149, 14151, 14153, 14155
 14445, 14450, 14455, 14460, 14465, 14470, 14475, 14480, 14485, 14490, 14495, 14500
*Elset, elset=_CB4s_S3
 13175, 13178, 13181, 13241, 13242, 13243, 13481, 13482, 13487, 13488, 13493, 13494, 13544, 13545, 13546, 13553
 13554, 13555, 13562, 13565, 13568, 13796, 13797, 13802, 13803, 13808, 13809, 14111, 14113, 14115, 14156, 14157
 14158, 14198, 14199, 14200, 14204, 14205, 14206, 14210, 14211, 14212, 14234, 14235, 14238, 14239, 14242, 14243
*Elset, elset=_CB4s_S6, generate
 13721,  13776,      5
*Elset, elset=_CB4s_S5
 14509, 14510, 14519, 14520, 14529, 14530, 14539, 14540, 14549, 14550, 14559, 14560, 14569, 14570, 14579, 14580
 14589, 14590, 14599, 14600, 14609, 14610, 14619, 14620
*Elset, elset=_CB4s_S2
 13250, 13251, 13252, 13253, 13254, 13255, 13268, 13269, 13270, 13271, 13272, 13273
*Surface, type=ELEMENT, name=CB4s
_CB4s_S4, S4
_CB4s_S3, S3
_CB4s_S6, S6
_CB4s_S2, S2
_CB4s_S5, S5
*Elset, elset=_CB5s_S6, generate
 13571,  13716,      5
*Elset, elset=_CB5s_S4, generate
 13290,  13435,      5
*Surface, type=ELEMENT, name=CB5s
_CB5s_S6, S6
_CB5s_S4, S4
*Elset, elset=_CT1s_S3
14741,14742,14743,14744,14745,14746,14771,14772,14773,14774,14775,14776,14801,14802,14803,14804
14805,14806,14831,14832,14833,14834,14835,14836,14861,14862,14863,14864,14865,14866,14891,14892
14893,14894,14895,14896,14921,14922,14923,14924,14925,14926,14951,14952,14953,14954,14955,14956
14981,14982,14983,14984,14985,14986,15011,15012,15013,15014,15015,15016
*Surface, type=ELEMENT, name=CT1s
_CT1s_S3, S3
*Elset, elset=_CT2s_S4
15085,15088,15091,15094,15097,15100,15240,15245,15250,15255,15260,15265,15270,15275,15280,15285
15290,15295,15310,15313,15316,15319,15322,15325,15358,15361,15364,15433,15436,15439,15442,15445
15448,15451,15454,15457,15630,15635,15640,15645,15650,15655,15660,15665,15670,15675,15680,15685
15705,15707,15709
*Elset, elset=_CT2s_S3
15041,15042,15043,15050,15051,15052,15107,15110,15113,15116,15117,15118,15326,15327,15328,15335
15336,15337,15458,15461,15464,15686,15687,15688,15692,15693,15694,15698,15699,15700
*Elset, elset=_CT2s_S2
15131,15132,15133,15134,15135,15136,15137,15138,15139,15371,15372,15373,15380,15381,15382,15383
15384,15385,15386,15387,15388,15491,15492,15493,15494,15495,15496,15509,15510,15511,15512,15513
15514,15527,15528,15529,15746,15747,15748,15752,15753,15754,15755,15756,15757,15764,15765,15766
15767,15768,15769
*Elset, elset=_CT2s_S5
15184,15185,15194,15195,15204,15205,15214,15215,15224,15225,15234,15235,15574,15575,15584,15585
15594,15595,15604,15605,15614,15615,15624,15625
*Surface, type=ELEMENT, name=CT2s
_CT2s_S4, S4
_CT2s_S3, S3
_CT2s_S2, S2
_CT2s_S5, S5
*Elset, elset=_CT3s_S3
16496,16497,16502,16503,16508,16509,16712,16715,16718,16766,16767,16768,16793,16794,16799,16800
16805,16806,16811,16812,16813,16820,16821,16822,16841,16842,16843,16847,16848,16849,16853,16854
16855,16994,16995,16996,17003,17004,17005,17012,17013,17014,17051,17054,17057
*Elset, elset=_CT3s_S4
16335,16340,16345,16350,16355,16360,16365,16370,16375,16380,16385,16390,16471,16474,16477,16480
16483,16486,16489,16492,16495,16534,16537,16540,16549,16552,16555,16558,16561,16564,16567,16570
16573,16650,16655,16660,16665,16670,16675,16680,16685,16690,16695,16700,16705,16723,16726,16729
16732,16735,16738,16741,16744,16747,16860,16862,16864,17023,17026,17029,17032,17035,17038
*Elset, elset=_CT3s_S2
16901,16902,16903,16907,16908,16909,16910,16911,16912,16919,16920,16921,16922,16923,16924,17066
17067,17068,17069,17070,17071,17084,17085,17086
*Elset, elset=_CT3s_S6
16391,16396,16401,16406,16411,16416,16421,16426,16431,16436,16441,16446,16586,16591,16596,16601
16606,16611,16616,16621,16626,16631,16636,16641
*Surface, type=ELEMENT, name=CT3s
_CT3s_S3, S3
_CT3s_S4, S4
_CT3s_S2, S2
_CT3s_S6, S6
*Elset, elset=_CT4s_S5
15829,15830,15839,15840,15849,15850,15859,15860,15869,15870,15879,15880,15889,15890,15899,15900
15909,15910,15919,15920,15929,15930,15939,15940,16084,16085,16094,16095,16104,16105,16114,16115
16124,16125,16134,16135,16144,16145,16154,16155,16164,16165,16174,16175,16184,16185,16194,16195
*Elset, elset=_CT4s_S3
15956,15957,15962,15963,15968,15969,16031,16032,16033,16040,16041,16042,16196,16198,16200,16241
16242,16243,17117,17120,17123,17171,17172,17173,17198,17199,17204,17205,17210,17211,17228,17229
17230,17237,17238,17239,17411,17412,17413,17417,17418,17419,17423,17424,17425
*Elset, elset=_CT4s_S4
15949,15952,15955,15994,15997,16000,16230,16232,16234,16236,16238,16240,17128,17131,17134,17137
17140,17143,17146,17149,17152,17406,17408,17410,17466,17468,17470,17472,17474,17476,17478,17480
17482,
*Elset, elset=_CT4s_S2
16049,16050,16051,16052,16053,16054,16055,16056,16057,16256,16257,16258,16259,16260,16261,16268
16269,16270,16271,16272,16273,16274,16275,16276,17501,17502,17503,17504,17505,17506
*Surface, type=ELEMENT, name=CT4s
_CT4s_S5, S5
_CT4s_S3, S3
_CT4s_S4, S4
_CT4s_S2, S2
*Elset, elset=_CT5s_S5
17270,17271,17272,17273,17274,17275,17300,17301,17302,17303,17304,17305,17330,17331,17332,17333
17334,17335,17360,17361,17362,17363,17364,17365,17390,17391,17392,17393,17394,17395,17555,17556
17557,17558,17559,17560,17585,17586,17587,17588,17589,17590,17615,17616,17617,17618,17619,17620
17645,17646,17647,17648,17649,17650,17675,17676,17677,17678,17679,17680
*Surface, type=ELEMENT, name=CT5s
_CT5s_S5, S5
*Elset, elset=_NSHANK1s_S4
30540,30543,30545,30546,30551,30552,30559,30562,30564,30565,30570,30571
*Elset, elset=_NSHANK1s_S3
30547,30553,30566,30572
*Elset, elset=_NSHANK1s_S5
30549,30568
*Elset, elset=_NSHANK1s_S6
30556,30575
*Surface, type=ELEMENT, name=NSHANK1s
_NSHANK1s_S4, S4
_NSHANK1s_S3, S3
_NSHANK1s_S6, S6
_NSHANK1s_S5, S5
*Elset, elset=_NSHANK2s_S4
30617,30620,30622,30623,30628,30629,30636,30639,30641,30642,30647,30648
*Elset, elset=_NSHANK2s_S3
30624,30630,30643,30649
*Elset, elset=_NSHANK2s_S5
30626,30645
*Elset, elset=_NSHANK2s_S6
30633,30652
*Surface, type=ELEMENT, name=NSHANK2s
_NSHANK2s_S4, S4
_NSHANK2s_S3, S3
_NSHANK2s_S6, S6
_NSHANK2s_S5, S5
*Elset, elset=_NSHANK3s_S4
30694,30697,30699,30700,30705,30706,30713,30716,30718,30719,30724,30725
*Elset, elset=_NSHANK3s_S3
30701,30707,30720,30726
*Elset, elset=_NSHANK3s_S5
30703,30722
*Elset, elset=_NSHANK3s_S6
30710,30729
*Surface, type=ELEMENT, name=NSHANK3s
_NSHANK3s_S4, S4
_NSHANK3s_S3, S3
_NSHANK3s_S6, S6
_NSHANK3s_S5, S5
*Elset, elset=_NUT1BOLTm_S3
29571,29573,29574,29577,29581,29584,29586,29588,29589,29592,29596,29599,29601,29603,29604,29607
29611,29614,29616,29618,29619,29622,29626,29629,29631,29633,29634,29637,29641,29644,29646,29648
29649,29652,29656,29659,29661,29663,29664,29667,29671,29674,29676,29678,29679,29682,29686,29689
29691,29693,29694,29697,29701,29704,29706,29708,29709,29712,29716,29719
*Elset, elset=_NUT1BOLTm_S4
29578,29579,29585,29593,29594,29600,29608,29609,29615,29623,29624,29630,29638,29639,29645,29653
29654,29660,29668,29669,29675,29683,29684,29690,29698,29699,29705,29713,29714,29720
*Elset, elset=_NUT1BOLTm_S6, generate
29580, 29715,   15
*Surface, type=ELEMENT, name=NUT1BOLTm
_NUT1BOLTm_S3, S3
_NUT1BOLTm_S4, S4
_NUT1BOLTm_S6, S6
*Elset, elset=_NUT1BOLTs_S4
30540,30543,30545,30546,30551,30552,30559,30562,30564,30565,30570,30571
*Elset, elset=_NUT1BOLTs_S3
30547,30553,30566,30572
*Elset, elset=_NUT1BOLTs_S5
30549,30568
*Elset, elset=_NUT1BOLTs_S6
30556,30575
*Surface, type=ELEMENT, name=NUT1BOLTs
_NUT1BOLTs_S4, S4
_NUT1BOLTs_S3, S3
_NUT1BOLTs_S6, S6
_NUT1BOLTs_S5, S5
*Elset, elset=_NUT2BOLTm_S3
29924,29926,29927,29930,29934,29937,29939,29941,29942,29945,29949,29952,29954,29956,29957,29960
29964,29967,29969,29971,29972,29975,29979,29982,29984,29986,29987,29990,29994,29997,29999,30001
30002,30005,30009,30012,30014,30016,30017,30020,30024,30027,30029,30031,30032,30035,30039,30042
30044,30046,30047,30050,30054,30057,30059,30061,30062,30065,30069,30072
*Elset, elset=_NUT2BOLTm_S4
29931,29932,29938,29946,29947,29953,29961,29962,29968,29976,29977,29983,29991,29992,29998,30006
30007,30013,30021,30022,30028,30036,30037,30043,30051,30052,30058,30066,30067,30073
*Elset, elset=_NUT2BOLTm_S6, generate
29933, 30068,   15
*Surface, type=ELEMENT, name=NUT2BOLTm
_NUT2BOLTm_S3, S3
_NUT2BOLTm_S4, S4
_NUT2BOLTm_S6, S6
*Elset, elset=_NUT2BOLTs_S4
30617,30620,30622,30623,30628,30629,30636,30639,30641,30642,30647,30648
*Elset, elset=_NUT2BOLTs_S3
30624,30630,30643,30649
*Elset, elset=_NUT2BOLTs_S5
30626,30645
*Elset, elset=_NUT2BOLTs_S6
30633,30652
*Surface, type=ELEMENT, name=NUT2BOLTs
_NUT2BOLTs_S4, S4
_NUT2BOLTs_S3, S3
_NUT2BOLTs_S6, S6
_NUT2BOLTs_S5, S5
*Elset, elset=_NUT3BOLTm_S3
30277,30279,30280,30283,30287,30290,30292,30294,30295,30298,30302,30305,30307,30309,30310,30313
30317,30320,30322,30324,30325,30328,30332,30335,30337,30339,30340,30343,30347,30350,30352,30354
30355,30358,30362,30365,30367,30369,30370,30373,30377,30380,30382,30384,30385,30388,30392,30395
30397,30399,30400,30403,30407,30410,30412,30414,30415,30418,30422,30425
*Elset, elset=_NUT3BOLTm_S4
30284,30285,30291,30299,30300,30306,30314,30315,30321,30329,30330,30336,30344,30345,30351,30359
30360,30366,30374,30375,30381,30389,30390,30396,30404,30405,30411,30419,30420,30426
*Elset, elset=_NUT3BOLTm_S6, generate
30286, 30421,   15
*Surface, type=ELEMENT, name=NUT3BOLTm
_NUT3BOLTm_S3, S3
_NUT3BOLTm_S4, S4
_NUT3BOLTm_S6, S6
*Elset, elset=_NUT3BOLTs_S4
30694,30697,30699,30700,30705,30706,30713,30716,30718,30719,30724,30725
*Elset, elset=_NUT3BOLTs_S3
30701,30707,30720,30726
*Elset, elset=_NUT3BOLTs_S5
30703,30722
*Elset, elset=_NUT3BOLTs_S6
30710,30729
*Surface, type=ELEMENT, name=NUT3BOLTs
_NUT3BOLTs_S4, S4
_NUT3BOLTs_S3, S3
_NUT3BOLTs_S6, S6
_NUT3BOLTs_S5, S5
*Elset, elset=_NUTBOTSURF_S2, generate
30559, 30577,   1
*Elset, elset=_NUTBOTSURF_S2, generate
30636, 30654,   1
*Elset, elset=_NUTBOTSURF_S2, generate
30713, 30731,   1
*Surface, type=ELEMENT, name=NUTBOTSURF
_NUTBOTSURF_S2, S2
*Elset, elset=_TOPS_S5
15184,15185,15194,15195,15204,15205,15214,15215,15224,15225,15234,15235,15574,15575,15584,15585
15594,15595,15604,15605,15614,15615,15624,15625,15829,15830,15839,15840,15849,15850,15859,15860
15869,15870,15879,15880,15889,15890,15899,15900,15909,15910,15919,15920,15929,15930,15939,15940
16084,16085,16094,16095,16104,16105,16114,16115,16124,16125,16134,16135,16144,16145,16154,16155
16164,16165,16174,16175,16184,16185,16194,16195,17270,17271,17272,17273,17274,17275,17300,17301
17302,17303,17304,17305,17330,17331,17332,17333,17334,17335,17360,17361,17362,17363,17364,17365
17390,17391,17392,17393,17394,17395,17555,17556,17557,17558,17559,17560,17585,17586,17587,17588
17589,17590,17615,17616,17617,17618,17619,17620,17645,17646,17647,17648,17649,17650,17675,17676
17677,17678,17679,17680
*Elset, elset=_TOPS_S3
14741,14742,14743,14744,14745,14746,14771,14772,14773,14774,14775,14776,14801,14802,14803,14804
14805,14806,14831,14832,14833,14834,14835,14836,14861,14862,14863,14864,14865,14866,14891,14892
14893,14894,14895,14896,14921,14922,14923,14924,14925,14926,14951,14952,14953,14954,14955,14956
14981,14982,14983,14984,14985,14986,15011,15012,15013,15014,15015,15016,15041,15042,15043,15050
15051,15052,15107,15110,15113,15116,15117,15118,15326,15327,15328,15335,15336,15337,15458,15461
15464,15686,15687,15688,15692,15693,15694,15698,15699,15700,15956,15957,15962,15963,15968,15969
16031,16032,16033,16040,16041,16042,16196,16198,16200,16241,16242,16243,16496,16497,16502,16503
16508,16509,16712,16715,16718,16766,16767,16768,16793,16794,16799,16800,16805,16806,16811,16812
16813,16820,16821,16822,16841,16842,16843,16847,16848,16849,16853,16854,16855,16994,16995,16996
17003,17004,17005,17012,17013,17014,17051,17054,17057,17117,17120,17123,17171,17172,17173,17198
17199,17204,17205,17210,17211,17228,17229,17230,17237,17238,17239,17411,17412,17413,17417,17418
17419,17423,17424,17425
*Elset, elset=_TOPS_S4
15085,15088,15091,15094,15097,15100,15240,15245,15250,15255,15260,15265,15270,15275,15280,15285
15290,15295,15310,15313,15316,15319,15322,15325,15358,15361,15364,15433,15436,15439,15442,15445
15448,15451,15454,15457,15630,15635,15640,15645,15650,15655,15660,15665,15670,15675,15680,15685
15705,15707,15709,15949,15952,15955,15994,15997,16000,16230,16232,16234,16236,16238,16240,16335
16340,16345,16350,16355,16360,16365,16370,16375,16380,16385,16390,16471,16474,16477,16480,16483
16486,16489,16492,16495,16534,16537,16540,16549,16552,16555,16558,16561,16564,16567,16570,16573
16650,16655,16660,16665,16670,16675,16680,16685,16690,16695,16700,16705,16723,16726,16729,16732
16735,16738,16741,16744,16747,16860,16862,16864,17023,17026,17029,17032,17035,17038,17128,17131
17134,17137,17140,17143,17146,17149,17152,17406,17408,17410,17466,17468,17470,17472,17474,17476
17478,17480,17482
*Elset, elset=_TOPS_S2
15131,15132,15133,15134,15135,15136,15137,15138,15139,15371,15372,15373,15380,15381,15382,15383
15384,15385,15386,15387,15388,15491,15492,15493,15494,15495,15496,15509,15510,15511,15512,15513
15514,15527,15528,15529,15746,15747,15748,15752,15753,15754,15755,15756,15757,15764,15765,15766
15767,15768,15769,16049,16050,16051,16052,16053,16054,16055,16056,16057,16256,16257,16258,16259
16260,16261,16268,16269,16270,16271,16272,16273,16274,16275,16276,16901,16902,16903,16907,16908
16909,16910,16911,16912,16919,16920,16921,16922,16923,16924,17066,17067,17068,17069,17070,17071
17084,17085,17086,17501,17502,17503,17504,17505,17506
*Elset, elset=_TOPS_S6
16391,16396,16401,16406,16411,16416,16421,16426,16431,16436,16441,16446,16586,16591,16596,16601
16606,16611,16616,16621,16626,16631,16636,16641
*Surface, type=ELEMENT, name=TOPS
_TOPS_S5, S5
_TOPS_S3, S3
_TOPS_S4, S4
_TOPS_S2, S2
_TOPS_S6, S6
*Elset, elset=_W1BOLTm_S1, generate
29736, 29757,    1
*Surface, type=ELEMENT, name=W1BOLTm
_W1BOLTm_S1, S1
*Elset, elset=_W1BOLTs_S2, generate
29795, 29833,   1
*Surface, type=ELEMENT, name=W1BOLTs
_W1BOLTs_S2, S2
*Elset, elset=_W1BOTm_S4
 12375, 12380, 12385, 12390, 12395, 12400, 12405, 12410, 12415, 12420, 12425, 12430, 12570, 12575, 12580, 12585
 12590, 12595, 12600, 12605, 12610, 12615, 12620, 12625, 12900, 12905, 12910, 12915, 12920, 12925, 12930, 12935
 12940, 12945, 12950, 12955
*Elset, elset=_W1BOTm_S5
 14689, 14690, 14699, 14700, 14709, 14710, 14719, 14720, 14729, 14730, 14739, 14740
*Surface, type=ELEMENT, name=W1BOTm
_W1BOTm_S4, S4
_W1BOTm_S5, S5
*Elset, elset=_W1BOTs_S2, generate
30578, 30616,   1
*Surface, type=ELEMENT, name=W1BOTs
_W1BOTs_S2, S2
*Elset, elset=_W1NUTm_S1, generate
30540, 30558,   1
*Surface, type=ELEMENT, name=W1NUTm
_W1NUTm_S1, S1
*Elset, elset=_W1NUTs_S1, generate
30578, 30616,   1
*Surface, type=ELEMENT, name=W1NUTs
_W1NUTs_S1, S1
*Elset, elset=_W1TOPm_S6
15236,15241,15246,15251,15256,15261,15266,15271,15276,15281,15286,15291,15626,15631,15636,15641
15646,15651,15656,15661,15666,15671,15676,15681
*Elset, elset=_W1TOPm_S3
15176,15177,15186,15187,15196,15197,15206,15207,15216,15217,15226,15227,15566,15567,15576,15577
15586,15587,15596,15597,15606,15607,15616,15617
*Surface, type=ELEMENT, name=W1TOPm
_W1TOPm_S6, S6
_W1TOPm_S3, S3
*Elset, elset=_W1TOPs_S1, generate
29795, 29833,   1
*Surface, type=ELEMENT, name=W1TOPs
_W1TOPs_S1, S1
*Elset, elset=_W2BOLTm_S1, generate
30089, 30110,    1
*Surface, type=ELEMENT, name=W2BOLTm
_W2BOLTm_S1, S1
*Elset, elset=_W2BOLTs_S2, generate
30148, 30186,   1
*Surface, type=ELEMENT, name=W2BOLTs
_W2BOLTs_S2, S2
*Elset, elset=_W2BOTm_S5
 14629, 14630, 14639, 14640, 14649, 14650, 14659, 14660, 14669, 14670, 14679, 14680
*Elset, elset=_W2BOTm_S6
 13091, 13096, 13101, 13106, 13111, 13116, 13121, 13126, 13131, 13136, 13141, 13146, 14051, 14056, 14061, 14066
 14071, 14076, 14081, 14086, 14091, 14096, 14101, 14106, 14381, 14386, 14391, 14396, 14401, 14406, 14411, 14416
 14421, 14426, 14431, 14436
*Surface, type=ELEMENT, name=W2BOTm
_W2BOTm_S5, S5
_W2BOTm_S6, S6
*Elset, elset=_W2BOTs_S2, generate
30655, 30693,   1
*Surface, type=ELEMENT, name=W2BOTs
_W2BOTs_S2, S2
*Elset, elset=_W2NUTm_S1, generate
30617, 30635,   1
*Surface, type=ELEMENT, name=W2NUTm
_W2NUTm_S1, S1
*Elset, elset=_W2NUTs_S1, generate
30655, 30693,   1
*Surface, type=ELEMENT, name=W2NUTs
_W2NUTs_S1, S1
*Elset, elset=_W2TOPm_S4
16395,16400,16405,16410,16415,16420,16425,16430,16435,16440,16445,16450,16590,16595,16600,16605
16610,16615,16620,16625,16630,16635,16640,16645
*Elset, elset=_W2TOPm_S6
16331,16336,16341,16346,16351,16356,16361,16366,16371,16376,16381,16386,16646,16651,16656,16661
16666,16671,16676,16681,16686,16691,16696,16701
*Surface, type=ELEMENT, name=W2TOPm
_W2TOPm_S4, S4
_W2TOPm_S6, S6
*Elset, elset=_W2TOPs_S1, generate
30148, 30186,   1
*Surface, type=ELEMENT, name=W2TOPs
_W2TOPs_S1, S1
*Elset, elset=_W3BOLTm_S1, generate
30442, 30463,    1
*Surface, type=ELEMENT, name=W3BOLTm
_W3BOLTm_S1, S1
*Elset, elset=_W3BOLTs_S2, generate
30501, 30539,   1
*Surface, type=ELEMENT, name=W3BOLTs
_W3BOLTs_S2, S2
*Elset, elset=_W3BOTm_S3
 14501, 14502, 14511, 14512, 14521, 14522, 14531, 14532, 14541, 14542, 14551, 14552, 14561, 14562, 14571, 14572
 14581, 14582, 14591, 14592, 14601, 14602, 14611, 14612
*Elset, elset=_W3BOTm_S6, generate
 14441,  14496,      5
*Elset, elset=_W3BOTm_S4, generate
 13725,  13780,      5
*Surface, type=ELEMENT, name=W3BOTm
_W3BOTm_S3, S3
_W3BOTm_S6, S6
_W3BOTm_S4, S4
*Elset, elset=_W3BOTs_S2, generate
30732, 30770,   1
*Surface, type=ELEMENT, name=W3BOTs
_W3BOTs_S2, S2
*Elset, elset=_W3NUTm_S1, generate
30694, 30712,   1
*Surface, type=ELEMENT, name=W3NUTm
_W3NUTm_S1, S1
*Elset, elset=_W3NUTs_S1, generate
30732, 30770,   1
*Surface, type=ELEMENT, name=W3NUTs
_W3NUTs_S1, S1
*Elset, elset=_W3TOPm_S3
15821,15822,15831,15832,15841,15842,15851,15852,15861,15862,15871,15872,15881,15882,15891,15892
15901,15902,15911,15912,15921,15922,15931,15932,16076,16077,16086,16087,16096,16097,16106,16107
16116,16117,16126,16127,16136,16137,16146,16147,16156,16157,16166,16167,16176,16177,16186,16187
*Surface, type=ELEMENT, name=W3TOPm
_W3TOPm_S3, S3
*Elset, elset=_W3TOPs_S1, generate
30501, 30539,   1
*Surface, type=ELEMENT, name=W3TOPs
_W3TOPs_S1, S1
** Constraint: BSHANK1
*Coupling, constraint name=BSHANK1, ref node=BSHANK1m, surface=BSHANK1s
*Distributing, weighting method=UNIFORM, coupling=STRUCTURAL
** Constraint: BSHANK2
*Coupling, constraint name=BSHANK2, ref node=BSHANK2m, surface=BSHANK2s
*Distributing, weighting method=UNIFORM, coupling=STRUCTURAL
** Constraint: BSHANK3
*Coupling, constraint name=BSHANK3, ref node=BSHANK3m, surface=BSHANK3s
*Distributing, weighting method=UNIFORM, coupling=STRUCTURAL
** Constraint: NSHANK1
*Coupling, constraint name=NSHANK1, ref node=NSHANK1m, surface=NSHANK1s
*Distributing, weighting method=UNIFORM, coupling=STRUCTURAL
** Constraint: NSHANK2
*Coupling, constraint name=NSHANK2, ref node=NSHANK2m, surface=NSHANK2s
*Distributing, weighting method=UNIFORM, coupling=STRUCTURAL
** Constraint: NSHANK3
*Coupling, constraint name=NSHANK3, ref node=NSHANK3m, surface=NSHANK3s
*Distributing, weighting method=UNIFORM, coupling=STRUCTURAL
** Constraint: NUTBOLT11
*Equation
2
BSHANK1m, 1, 1.
NSHANK1m, 1, -1.
** Constraint: NUTBOLT12
*Equation
2
BSHANK1m, 2, 1.
NSHANK1m, 2, -1.
** Constraint: NUTBOLT14
*Equation
2
BSHANK1m, 4, 1.
NSHANK1m, 4, -1.
** Constraint: NUTBOLT15
*Equation
2
BSHANK1m, 5, 1.
NSHANK1m, 5, -1.
** Constraint: NUTBOLT16
*Equation
2
BSHANK1m, 6, 1.
NSHANK1m, 6, -1.
** Constraint: NUTBOLT21
*Equation
2
BSHANK2m, 1, 1.
NSHANK2m, 1, -1.
** Constraint: NUTBOLT22
*Equation
2
BSHANK2m, 2, 1.
NSHANK2m, 2, -1.
** Constraint: NUTBOLT24
*Equation
2
BSHANK2m, 4, 1.
NSHANK2m, 4, -1.
** Constraint: NUTBOLT25
*Equation
2
BSHANK2m, 5, 1.
NSHANK2m, 5, -1.
** Constraint: NUTBOLT26
*Equation
2
BSHANK2m, 6, 1.
NSHANK2m, 6, -1.
** Constraint: NUTBOLT31
*Equation
2
BSHANK3m, 1, 1.
NSHANK3m, 1, -1.
** Constraint: NUTBOLT32
*Equation
2
BSHANK3m, 2, 1.
NSHANK3m, 2, -1.
** Constraint: NUTBOLT34
*Equation
2
BSHANK3m, 4, 1.
NSHANK3m, 4, -1.
** Constraint: NUTBOLT35
*Equation
2
BSHANK3m, 5, 1.
NSHANK3m, 5, -1.
** Constraint: NUTBOLT36
*Equation
2
BSHANK3m, 6, 1.
NSHANK3m, 6, -1.
** Constraint: W1BOLT
*Tie, name=W1BOLT, adjust=yes
W1BOLTs, W1BOLTm
** Constraint: W1BOT
*Tie, name=W1BOT, adjust=yes
W1BOTs, W1BOTm
** Constraint: W1NUT
*Tie, name=W1NUT, adjust=yes
W1NUTs, W1NUTm
** Constraint: W1TOP
*Tie, name=W1TOP, adjust=yes
W1TOPs, W1TOPm
** Constraint: W2BOLT
*Tie, name=W2BOLT, adjust=yes
W2BOLTs, W2BOLTm
** Constraint: W2BOT
*Tie, name=W2BOT, adjust=yes
W2BOTs, W2BOTm
** Constraint: W2NUT
*Tie, name=W2NUT, adjust=yes
W2NUTs, W2NUTm
** Constraint: W2TOP
*Tie, name=W2TOP, adjust=yes
W2TOPs, W2TOPm
** Constraint: W3BOLT
*Tie, name=W3BOLT, adjust=yes
W3BOLTs, W3BOLTm
** Constraint: W3BOT
*Tie, name=W3BOT, adjust=yes
W3BOTs, W3BOTm
** Constraint: W3NUT
*Tie, name=W3NUT, adjust=yes
W3NUTs, W3NUTm
** Constraint: W3TOP
*Tie, name=W3TOP, adjust=yes
W3TOPs, W3TOPm
** 
** MATERIALS
** 
*Material, name=STEEL
*Density
7857.8,
*Elastic
 1.9285e+11, 0.29
** 
** INTERACTIONS
** 
** Interaction: CONTINTERFACE
**Contact Pair, interaction=FRICTLESS, type=SURFACE TO SURFACE
**BOTS, TOPS
** ----------------------------------------------------------------
** 
** STEP: PRESTRESS
** 
**Step, name=PRESTRESS, nlgeom=YES
**Static
**0.02, 1., 1e-05, 1.
** 
** LOADS
** 
** Name: BLPULL1   Type: Concentrated force
**Cload
**BSHANK1m, 3, 11580.
** Name: BLPULL2   Type: Concentrated force
**Cload
**BSHANK2m, 3, 11580.
** Name: BLPULL3   Type: Concentrated force
**Cload
**BSHANK3m, 3, 11580.
** Name: NLPUSH1   Type: Concentrated force
**Cload
**NSHANK1m, 3, -11580.
** Name: NLPUSH2   Type: Concentrated force
**Cload
**NSHANK2m, 3, -11580.
** Name: NLPUSH3   Type: Concentrated force
**Cload
**NSHANK3m, 3, -11580.
** 
** OUTPUT REQUESTS
** 
**Restart, write, frequency=0
** 
** FIELD OUTPUT: F-Output-1
** 
**Output, field, variable=PRESELECT
** 
** HISTORY OUTPUT: H-Output-1
** 
**Output, history, variable=PRESELECT
**End Step
** ----------------------------------------------------------------
** 
** STEP: FREQ
** 
*Step, name=FREQ, nlgeom=NO, perturbation
*Frequency, eigensolver=Lanczos, sim=NO, acoustic coupling=on, normalization=displacement
30, , , , , 
** 
** OUTPUT REQUESTS
** 
*Restart, write, frequency=0
** 
** FIELD OUTPUT: F-Output-2
** 
*Output, field, variable=PRESELECT
*End Step
** ----------------------------------------------------------------
**
** STEP: SUBSTRUCTURE
**
*Step, name=SUBSTR, nlgeom=NO
*Substructure Generate, overwrite, type=Z1, mass matrix=YES, recovery matrix=YES, NSET=ENDNDS
**Substructure Generate, overwrite, type=Z1, mass matrix=YES, recovery matrix=YES, NSET=BOLTNUTSHANK
*Select Eigenmodes, generate
1, 26, 1
*Damping Controls, structural=COMBINED, viscous=COMBINED
*Retained Nodal Dofs, sorted=NO
CT, 1, 3
CB, 1, 3
**INTPROXIMSET, 1, 3
*Substructure Matrix Output, FILE NAME=BRB_PRESEXT_MAT, MASS=YES, STIFFNESS=YES, SLOAD=YES, RECOVERY MATRIX=YES
*SUBSTRUCTURE LOAD CASE, NAME=BOLTLOADS
*Cload
BSHANK1m, 3, 1.
*Cload
BSHANK2m, 3, 1.
*Cload
BSHANK3m, 3, 1.
*Cload
NSHANK1m, 3, -1.
*Cload
NSHANK2m, 3, -1.
*Cload
NSHANK3m, 3, -1.
*End Step

